/*---------------------------------------------------------------------------*\
| =========                 |                                                 |
| \\      /  F ield         | OpenFOAM: The Open Source CFD Toolbox           |
|  \\    /   O peration     | Version:  2.2.1                                 |
|   \\  /    A nd           | Web:      www.OpenFOAM.org                      |
|    \\/     M anipulation  |                                                 |
\*---------------------------------------------------------------------------*/
Build  : 2.2.1-57f3c3617a2d
Exec   : blockMesh -dict system/blockMeshDict -case /home/balurdo/OpenFOAM/balurdo-2.2.1/run/level
Date   : Aug 22 2013
Time   : 13:23:32
Host   : "balurdo-VirtualBox"
PID    : 4299
Case   : /home/balurdo/OpenFOAM/balurdo-2.2.1/run/level
nProcs : 1
sigFpe : Enabling floating point exception trapping (FOAM_SIGFPE).
fileModificationChecking : Monitoring run-time modified files using timeStampMaster
allowSystemOperations : Disallowing user-supplied system call operations

// * * * * * * * * * * * * * * * * * * * * * * * * * * * * * * * * * * * * * //
Create time

Creating block mesh from
    "/home/balurdo/OpenFOAM/balurdo-2.2.1/run/level/system/blockMeshDict"
Creating curved edges
Creating topology blocks
Creating topology patches

Reading patches section

Creating block mesh topology

Reading physicalType from existing boundary file

Default patch type set to empty

Check topology

	Basic statistics
		Number of internal faces : 0
		Number of boundary faces : 6
		Number of defined boundary faces : 6
		Number of undefined boundary faces : 0
	Checking patch -> block consistency

Creating block offsets
Creating merge list .

Creating polyMesh from blockMesh
Creating patches
Creating cells
Creating points with scale 1

Writing polyMesh
----------------
Mesh Information
----------------
  boundingBox: (-50 -35 -12) (50 35 12)
  nPoints: 23868
  nCells: 21000
  nFaces: 65770
  nInternalFaces: 60230
----------------
Patches
----------------
  patch 0 (start: 60230 size: 420) name: ffminx
  patch 1 (start: 60650 size: 420) name: ffmaxx
  patch 2 (start: 61070 size: 600) name: ffminy
  patch 3 (start: 61670 size: 600) name: ffmaxy
  patch 4 (start: 62270 size: 1750) name: ffminz
  patch 5 (start: 64020 size: 1750) name: ffmaxz

End

